/*--------------------------------*- C++ -*----------------------------------*\
| =========                 |                                                 |
| \\      /  F ield         | OpenFOAM: The Open Source CFD Toolbox           |
|  \\    /   O peration     | Version:  1.6                                   |
|   \\  /    A nd           | Web:      www.OpenFOAM.org                      |
|    \\/     M anipulation  |                                                 |
\*---------------------------------------------------------------------------*/
FoamFile
{
    version     2.0;
    format      ascii;
    class       dictionary;
    location    "system";
    object      controlDict;
}
// * * * * * * * * * * * * * * * * * * * * * * * * * * * * * * * * * * * * * //

application     cfdemSolverPiso;

startFrom       startTime;

startTime       60.6;

stopAt          endTime;

endTime         70;

deltaT          1e-4;

writeControl    adjustableRunTime;

writeInterval   0.6;

purgeWrite      0;

writeFormat     ascii;

writePrecision  6;

writeCompression no;

timeFormat      general;

purgeWrite	0; 

timePrecision   6;

runTimeModifiable no;

adjustTimeStep  no;

maxCo           1;

maxDeltaT       1;

libs 
( 
    "libincompressibleTransportModelsCFDEM.so"
);

functions
(
    slices
    {
        type            surfaces;
        functionObjectLibs
        (
            "libsampling.so"
        );
        outputControl   runTime 0.05;
        writeInterval 0.05;
        interpolationScheme cellPoint;
        surfaceFormat   vtk;
        fields
        (
            U
            voidfraction
        );
        surfaces
        (
            yplane
            {
                type            plane;    
                basePoint       (0.0001 0.0001 0.0001);
                normalVector    (0 1 0);
            }

        );
    }

   surfaces
    {
        type            surfaces;
        functionObjectLibs
        (
            "libsampling.so"
        );
        outputControl   runTime 0.05;
        writeInterval 0.05;
        interpolationScheme cellPoint;
        surfaceFormat   raw;
        fields
        (
            p
        );
        surfaces
        (
            constantPlane
            {
                type            plane;    
                basePoint       (0.00 0.00 0.0001);
                normalVector    (0 0 1);
            }
        );
    }



);

// ************************************************************************* //
